@<TRIPOS>MOLECULE
caff
 24 25 0 0 0
SMALL
GASTEIGER

@<TRIPOS>ATOM
      1 N1         22.9610   37.5960   36.4360 N.ar  201  caff     -0.2622
      2 C2         22.1530   36.4640   36.4000 C.ar  201  caff      0.3331
      3 C10        22.6220   38.6300   35.4320 C.3   201  caff      0.0196
      4 C6         23.9950   37.9250   37.2970 C.ar  201  caff      0.2822
      5 N3         22.4470   35.5170   37.3550 N.ar  201  caff     -0.2796
      6 O11        21.2430   36.3020   35.5790 O.2   201  caff     -0.2462
      7 C12        21.6400   34.2940   37.3990 C.3   201  caff      0.0181
      8 C4         23.4850   35.6830   38.2610 C.ar  201  caff      0.1678
      9 C5         24.2360   36.8400   38.2160 C.ar  201  caff      0.1512
     10 N9         23.8900   34.8580   39.2120 N.ar  201  caff     -0.2177
     11 O13        24.6230   38.9820   37.2680 O.2   201  caff     -0.2652
     12 N7         25.1860   36.6940   39.2000 N.ar  201  caff     -0.3277
     13 C8         24.9080   35.4720   39.7660 C.ar  201  caff      0.0986
     14 C14        26.2360   37.6210   39.5840 C.3   201  caff      0.0135
     15 H101       22.9670   39.6310   35.6960 H     201  caff      0.0458
     16 H102       23.0550   38.3720   34.4660 H     201  caff      0.0458
     17 H103       21.5430   38.7260   35.2980 H     201  caff      0.0458
     18 H121       22.0950   33.5140   38.0110 H     201  caff      0.0458
     19 H122       20.6590   34.5190   37.8170 H     201  caff      0.0458
     20 H123       21.4960   33.8770   36.4010 H     201  caff      0.0458
     21 H8         25.5070   35.1050   40.5870 H     201  caff      0.1029
     22 H141       26.7090   37.2910   40.5100 H     201  caff      0.0456
     23 H142       26.9890   37.6560   38.7970 H     201  caff      0.0456
     24 H143       25.8080   38.6120   39.7330 H     201  caff      0.0456
@<TRIPOS>BOND
     1     1     3    1
     2     1     2   ar
     3     1     4   ar
     4     2     6    2
     5     2     5   ar
     6     3    16    1
     7     3    17    1
     8     3    15    1
     9     4    11    2
    10     4     9   ar
    11     5     7    1
    12     5     8   ar
    13     7    20    1
    14     7    19    1
    15     7    18    1
    16     8     9   ar
    17     8    10   ar
    18     9    12   ar
    19    10    13   ar
    20    12    14    1
    21    12    13   ar
    22    13    21    1
    23    14    23    1
    24    14    24    1
    25    14    22    1
